REMARK  6 active torsions:
REMARK  status: ('A' for Active; 'I' for Inactive)
REMARK    1  A    between atoms: N_1  and  C_14
REMARK    2  A    between atoms: N_4  and  C_11
REMARK    3  A    between atoms: C_10  and  C_11
REMARK    4  A    between atoms: C_11  and  O_25
REMARK    5  A    between atoms: C_15  and  C_17
REMARK    6  A    between atoms: C_16  and  C_18
REMARK                            x       y       z     vdW  Elec       q    Type
REMARK                         _______ _______ _______ _____ _____    ______ ____
ROOT
ATOM      1  N   UNK B   1      -4.205   1.455   1.842  0.00  0.00    -0.285 N 
ATOM      2  N   UNK B   1      -6.727   0.065  -0.960  0.00  0.00    -0.272 N 
ATOM      3  N   UNK B   1      -6.329   0.933   1.174  0.00  0.00    -0.176 N 
ATOM      4  N   UNK B   1      -3.128   0.278  -0.419  0.00  0.00    -0.261 N 
ATOM      5  C   UNK B   1      -0.961   1.234   0.125  0.00  0.00    -0.035 A 
ATOM      6  C   UNK B   1      -2.034   2.364   2.396  0.00  0.00    -0.035 A 
ATOM      7  C   UNK B   1      -4.772   1.949   3.074  0.00  0.00    +0.007 C 
ATOM      8  C   UNK B   1       1.285   2.211   0.591  0.00  0.00    -0.039 C 
ATOM      9  C   UNK B   1       0.160   3.370   3.035  0.00  0.00    -0.039 C 
ATOM     10  C   UNK B   1      -0.150   1.990   0.952  0.00  0.00    -0.046 A 
ATOM     11  C   UNK B   1      -0.691   2.554   2.115  0.00  0.00    -0.046 A 
ATOM     12  C   UNK B   1      -5.421   0.043  -1.347  0.00  0.00    +0.278 A 
ATOM     13  C   UNK B   1      -7.235   0.459   0.296  0.00  0.00    +0.350 A 
ATOM     14  C   UNK B   1      -2.312   1.026   0.404  0.00  0.00    +0.058 A 
ATOM     15  C   UNK B   1      -2.866   1.625   1.559  0.00  0.00    +0.057 A 
ATOM     16  C   UNK B   1      -4.490   0.402  -0.294  0.00  0.00    +0.142 A 
ATOM     17  C   UNK B   1      -5.051   0.934   0.893  0.00  0.00    +0.158 A 
ATOM     18  O   UNK B   1      -5.126  -0.230  -2.513  0.00  0.00    -0.266 OA
ATOM     19  O   UNK B   1      -8.422   0.375   0.508  0.00  0.00    -0.245 OA
ATOM     20  H   UNK B   1      -7.388  -0.226  -1.629  0.00  0.00    +0.000 HD
ATOM     21  H   UNK B   1      -6.634   1.284   2.042  0.00  0.00    +0.000 HD
ENDROOT
BRANCH   4  22
ATOM     22  C   UNK B   1      -2.559  -0.668  -1.390  0.00  0.00    +0.152 C 
BRANCH  22  28
ATOM     23  C   UNK B   1      -3.680  -2.491  -0.051  0.00  0.00    -0.055 A 
ATOM     24  C   UNK B   1      -3.552  -2.737  -2.433  0.00  0.00    -0.055 A 
ATOM     25  C   UNK B   1      -4.350  -3.699   0.036  0.00  0.00    -0.061 A 
ATOM     26  C   UNK B   1      -4.219  -3.946  -2.342  0.00  0.00    -0.061 A 
ATOM     27  C   UNK B   1      -4.627  -4.425  -1.109  0.00  0.00    -0.062 A 
ATOM     28  C   UNK B   1      -3.293  -1.995  -1.290  0.00  0.00    -0.001 A 
ENDBRANCH  22  28
BRANCH  22  29
ATOM     29  O   UNK B   1      -2.533  -0.123  -2.664  0.00  0.00    -0.370 OA
ATOM     30  H   UNK B   1      -3.438   0.084  -2.946  0.00  0.00    +0.000 HD
ENDBRANCH  22  29
ENDBRANCH   4  22
TORSDOF 3

